./Prepped_v2/1A95_orig.pdb
 OpenBabel10212411373D

 22 22  0  0  1  0  0  0  0  0999 V2000
   21.6810  134.3680   23.0060 C   0  0  2  0  0  0  0  0  0  0  0  0
   20.5620  133.4200   23.4590 C   0  0  1  0  0  0  0  0  0  0  0  0
   19.4310  133.6320   22.4100 C   0  0  1  0  0  0  0  0  0  0  0  0
   19.5480  135.1110   22.0090 C   0  0  2  0  0  0  0  0  0  0  0  0
   21.0180  135.3310   22.1020 C   0  0  0  0  0  0  0  0  0  0  0  0
   18.7070  136.1090   22.8030 C   0  0  0  0  0  0  0  0  0  0  0  0
   22.6120  133.6700   22.0560 O   0  0  0  0  0  0  0  0  0  0  0  0
   20.9910  132.0660   23.5500 O   0  0  0  0  0  0  0  0  0  0  0  0
   19.5400  132.8360   21.2400 O   0  0  0  0  0  0  0  0  0  0  0  0
   19.0920  137.4830   22.5400 O   0  0  0  0  0  0  0  0  0  0  0  0
   18.0360  138.6270   22.1440 P   0  0  0  0  0  0  0  0  0  0  0  0
   16.7240  138.1940   22.6850 O   0  0  0  0  0  0  0  0  0  0  0  0
   18.0510  138.6900   20.6640 O   0  0  0  0  0  0  0  0  0  0  0  0
   18.5410  139.8690   22.7820 O   0  0  0  0  0  0  0  0  0  0  0  0
   23.8800  134.3850   21.4850 P   0  0  2  0  0  0  0  0  0  0  0  0
   24.2140  135.4850   22.4430 O   0  0  0  0  0  0  0  0  0  0  0  0
   23.4720  134.9370   20.1540 O   0  0  0  0  0  0  0  0  0  0  0  0
   24.9000  133.2580   21.4300 O   0  0  0  0  0  0  0  0  0  0  0  0
   24.8070  131.7460   21.3110 P   0  0  0  0  0  0  0  0  0  0  0  0
   24.9700  131.2830   19.8990 O   0  0  0  0  0  0  0  0  0  0  0  0
   23.5210  131.2660   21.7750 O   0  0  0  0  0  0  0  0  0  0  0  0
   25.8470  131.0650   22.1400 O   0  0  0  0  0  0  0  0  0  0  0  0
  1  7  1  6  0  0  0
  1  2  1  0  0  0  0
  2  8  1  6  0  0  0
  3  9  1  6  0  0  0
  3  2  1  0  0  0  0
  4  5  1  0  0  0  0
  4  3  1  0  0  0  0
  4  6  1  1  0  0  0
  5  1  1  0  0  0  0
 10  6  1  0  0  0  0
 11 10  1  0  0  0  0
 11 12  1  0  0  0  0
 11 14  1  0  0  0  0
 13 11  2  0  0  0  0
 15 17  2  6  0  0  0
 15  7  1  0  0  0  0
 15 16  1  0  0  0  0
 18 15  1  0  0  0  0
 19 18  1  0  0  0  0
 19 21  1  0  0  0  0
 19 22  1  0  0  0  0
 20 19  2  0  0  0  0
M  END
$$$$
